* NGSPICE file created from tt_um_connerdaehler_boop.ext - technology: sky130A

* Black-box entry subcircuit for sky130_fd_sc_hd__o21ai_1 abstract view
.subckt sky130_fd_sc_hd__o21ai_1 A1 A2 B1 VGND VNB VPB VPWR Y
.ends

* Black-box entry subcircuit for sky130_fd_sc_hd__fill_2 abstract view
.subckt sky130_fd_sc_hd__fill_2 VGND VNB VPB VPWR
.ends

* Black-box entry subcircuit for sky130_fd_sc_hd__xnor2_1 abstract view
.subckt sky130_fd_sc_hd__xnor2_1 A B VGND VNB VPB VPWR Y
.ends

* Black-box entry subcircuit for sky130_fd_sc_hd__decap_3 abstract view
.subckt sky130_fd_sc_hd__decap_3 VGND VNB VPB VPWR
.ends

* Black-box entry subcircuit for sky130_fd_sc_hd__tapvpwrvgnd_1 abstract view
.subckt sky130_fd_sc_hd__tapvpwrvgnd_1 VGND VPWR
.ends

* Black-box entry subcircuit for sky130_fd_sc_hd__fill_1 abstract view
.subckt sky130_fd_sc_hd__fill_1 VGND VNB VPB VPWR
.ends

* Black-box entry subcircuit for sky130_fd_sc_hd__xnor2_4 abstract view
.subckt sky130_fd_sc_hd__xnor2_4 A B VGND VNB VPB VPWR Y
.ends

* Black-box entry subcircuit for sky130_fd_sc_hd__o22a_1 abstract view
.subckt sky130_fd_sc_hd__o22a_1 A1 A2 B1 B2 VGND VNB VPB VPWR X
.ends

* Black-box entry subcircuit for sky130_fd_sc_hd__a21o_1 abstract view
.subckt sky130_fd_sc_hd__a21o_1 A1 A2 B1 VGND VNB VPB VPWR X
.ends

* Black-box entry subcircuit for sky130_fd_sc_hd__and3_1 abstract view
.subckt sky130_fd_sc_hd__and3_1 A B C VGND VNB VPB VPWR X
.ends

* Black-box entry subcircuit for sky130_fd_sc_hd__nand2_1 abstract view
.subckt sky130_fd_sc_hd__nand2_1 A B VGND VNB VPB VPWR Y
.ends

* Black-box entry subcircuit for sky130_fd_sc_hd__or3_2 abstract view
.subckt sky130_fd_sc_hd__or3_2 A B C VGND VNB VPB VPWR X
.ends

* Black-box entry subcircuit for sky130_fd_sc_hd__nor3_1 abstract view
.subckt sky130_fd_sc_hd__nor3_1 A B C VGND VNB VPB VPWR Y
.ends

* Black-box entry subcircuit for sky130_fd_sc_hd__xor2_1 abstract view
.subckt sky130_fd_sc_hd__xor2_1 A B VGND VNB VPB VPWR X
.ends

* Black-box entry subcircuit for sky130_fd_sc_hd__nor2_1 abstract view
.subckt sky130_fd_sc_hd__nor2_1 A B VGND VNB VPB VPWR Y
.ends

* Black-box entry subcircuit for sky130_fd_sc_hd__and2_1 abstract view
.subckt sky130_fd_sc_hd__and2_1 A B VGND VNB VPB VPWR X
.ends

* Black-box entry subcircuit for sky130_fd_sc_hd__inv_2 abstract view
.subckt sky130_fd_sc_hd__inv_2 A VGND VNB VPB VPWR Y
.ends

* Black-box entry subcircuit for sky130_fd_sc_hd__or3b_1 abstract view
.subckt sky130_fd_sc_hd__or3b_1 A B C_N VGND VNB VPB VPWR X
.ends

* Black-box entry subcircuit for sky130_fd_sc_hd__a21oi_1 abstract view
.subckt sky130_fd_sc_hd__a21oi_1 A1 A2 B1 VGND VNB VPB VPWR Y
.ends

* Black-box entry subcircuit for sky130_fd_sc_hd__o21ba_1 abstract view
.subckt sky130_fd_sc_hd__o21ba_1 A1 A2 B1_N VGND VNB VPB VPWR X
.ends

* Black-box entry subcircuit for sky130_fd_sc_hd__conb_1 abstract view
.subckt sky130_fd_sc_hd__conb_1 VGND VNB VPB VPWR HI LO
.ends

* Black-box entry subcircuit for sky130_fd_sc_hd__o2111a_1 abstract view
.subckt sky130_fd_sc_hd__o2111a_1 A1 A2 B1 C1 D1 VGND VNB VPB VPWR X
.ends

* Black-box entry subcircuit for sky130_fd_sc_hd__a21bo_1 abstract view
.subckt sky130_fd_sc_hd__a21bo_1 A1 A2 B1_N VGND VNB VPB VPWR X
.ends

* Black-box entry subcircuit for sky130_fd_sc_hd__a31oi_1 abstract view
.subckt sky130_fd_sc_hd__a31oi_1 A1 A2 A3 B1 VGND VNB VPB VPWR Y
.ends

* Black-box entry subcircuit for sky130_fd_sc_hd__nand2b_1 abstract view
.subckt sky130_fd_sc_hd__nand2b_1 A_N B VGND VNB VPB VPWR Y
.ends

* Black-box entry subcircuit for sky130_fd_sc_hd__a311oi_1 abstract view
.subckt sky130_fd_sc_hd__a311oi_1 A1 A2 A3 B1 C1 VGND VNB VPB VPWR Y
.ends

* Black-box entry subcircuit for sky130_fd_sc_hd__or3_1 abstract view
.subckt sky130_fd_sc_hd__or3_1 A B C VGND VNB VPB VPWR X
.ends

* Black-box entry subcircuit for sky130_fd_sc_hd__o31a_1 abstract view
.subckt sky130_fd_sc_hd__o31a_1 A1 A2 A3 B1 VGND VNB VPB VPWR X
.ends

* Black-box entry subcircuit for sky130_fd_sc_hd__buf_1 abstract view
.subckt sky130_fd_sc_hd__buf_1 A VGND VNB VPB VPWR X
.ends

* Black-box entry subcircuit for sky130_fd_sc_hd__o2bb2a_2 abstract view
.subckt sky130_fd_sc_hd__o2bb2a_2 A1_N A2_N B1 B2 VGND VNB VPB VPWR X
.ends

* Black-box entry subcircuit for sky130_fd_sc_hd__o2bb2a_1 abstract view
.subckt sky130_fd_sc_hd__o2bb2a_1 A1_N A2_N B1 B2 VGND VNB VPB VPWR X
.ends

* Black-box entry subcircuit for sky130_fd_sc_hd__o21bai_2 abstract view
.subckt sky130_fd_sc_hd__o21bai_2 A1 A2 B1_N VGND VNB VPB VPWR Y
.ends

* Black-box entry subcircuit for sky130_fd_sc_hd__nor3_2 abstract view
.subckt sky130_fd_sc_hd__nor3_2 A B C VGND VNB VPB VPWR Y
.ends

* Black-box entry subcircuit for sky130_fd_sc_hd__o32a_1 abstract view
.subckt sky130_fd_sc_hd__o32a_1 A1 A2 A3 B1 B2 VGND VNB VPB VPWR X
.ends

* Black-box entry subcircuit for sky130_fd_sc_hd__and2b_1 abstract view
.subckt sky130_fd_sc_hd__and2b_1 A_N B VGND VNB VPB VPWR X
.ends

* Black-box entry subcircuit for sky130_fd_sc_hd__a21oi_2 abstract view
.subckt sky130_fd_sc_hd__a21oi_2 A1 A2 B1 VGND VNB VPB VPWR Y
.ends

* Black-box entry subcircuit for sky130_fd_sc_hd__xor2_4 abstract view
.subckt sky130_fd_sc_hd__xor2_4 A B VGND VNB VPB VPWR X
.ends

* Black-box entry subcircuit for sky130_fd_sc_hd__a211oi_1 abstract view
.subckt sky130_fd_sc_hd__a211oi_1 A1 A2 B1 C1 VGND VNB VPB VPWR Y
.ends

* Black-box entry subcircuit for sky130_fd_sc_hd__xnor2_2 abstract view
.subckt sky130_fd_sc_hd__xnor2_2 A B VGND VNB VPB VPWR Y
.ends

* Black-box entry subcircuit for sky130_fd_sc_hd__o21a_1 abstract view
.subckt sky130_fd_sc_hd__o21a_1 A1 A2 B1 VGND VNB VPB VPWR X
.ends

* Black-box entry subcircuit for sky130_fd_sc_hd__a211oi_2 abstract view
.subckt sky130_fd_sc_hd__a211oi_2 A1 A2 B1 C1 VGND VNB VPB VPWR Y
.ends

* Black-box entry subcircuit for sky130_fd_sc_hd__a31o_1 abstract view
.subckt sky130_fd_sc_hd__a31o_1 A1 A2 A3 B1 VGND VNB VPB VPWR X
.ends

* Black-box entry subcircuit for sky130_fd_sc_hd__and3_2 abstract view
.subckt sky130_fd_sc_hd__and3_2 A B C VGND VNB VPB VPWR X
.ends

* Black-box entry subcircuit for sky130_fd_sc_hd__or2_1 abstract view
.subckt sky130_fd_sc_hd__or2_1 A B VGND VNB VPB VPWR X
.ends

* Black-box entry subcircuit for sky130_fd_sc_hd__o21ai_2 abstract view
.subckt sky130_fd_sc_hd__o21ai_2 A1 A2 B1 VGND VNB VPB VPWR Y
.ends

* Black-box entry subcircuit for sky130_fd_sc_hd__o311a_1 abstract view
.subckt sky130_fd_sc_hd__o311a_1 A1 A2 A3 B1 C1 VGND VNB VPB VPWR X
.ends

* Black-box entry subcircuit for sky130_fd_sc_hd__nand2_4 abstract view
.subckt sky130_fd_sc_hd__nand2_4 A B VGND VNB VPB VPWR Y
.ends

* Black-box entry subcircuit for sky130_fd_sc_hd__a211o_1 abstract view
.subckt sky130_fd_sc_hd__a211o_1 A1 A2 B1 C1 VGND VNB VPB VPWR X
.ends

* Black-box entry subcircuit for sky130_fd_sc_hd__clkbuf_8 abstract view
.subckt sky130_fd_sc_hd__clkbuf_8 A VGND VNB VPB VPWR X
.ends

* Black-box entry subcircuit for sky130_fd_sc_hd__a22o_1 abstract view
.subckt sky130_fd_sc_hd__a22o_1 A1 A2 B1 B2 VGND VNB VPB VPWR X
.ends

* Black-box entry subcircuit for sky130_fd_sc_hd__and2_2 abstract view
.subckt sky130_fd_sc_hd__and2_2 A B VGND VNB VPB VPWR X
.ends

* Black-box entry subcircuit for sky130_fd_sc_hd__o221a_1 abstract view
.subckt sky130_fd_sc_hd__o221a_1 A1 A2 B1 B2 C1 VGND VNB VPB VPWR X
.ends

* Black-box entry subcircuit for sky130_fd_sc_hd__and4bb_2 abstract view
.subckt sky130_fd_sc_hd__and4bb_2 A_N B_N C D VGND VNB VPB VPWR X
.ends

* Black-box entry subcircuit for sky130_fd_sc_hd__o211a_1 abstract view
.subckt sky130_fd_sc_hd__o211a_1 A1 A2 B1 C1 VGND VNB VPB VPWR X
.ends

* Black-box entry subcircuit for sky130_fd_sc_hd__o211ai_1 abstract view
.subckt sky130_fd_sc_hd__o211ai_1 A1 A2 B1 C1 VGND VNB VPB VPWR Y
.ends

* Black-box entry subcircuit for sky130_fd_sc_hd__o211ai_2 abstract view
.subckt sky130_fd_sc_hd__o211ai_2 A1 A2 B1 C1 VGND VNB VPB VPWR Y
.ends

* Black-box entry subcircuit for sky130_fd_sc_hd__a2bb2o_1 abstract view
.subckt sky130_fd_sc_hd__a2bb2o_1 A1_N A2_N B1 B2 VGND VNB VPB VPWR X
.ends

* Black-box entry subcircuit for sky130_fd_sc_hd__or2_2 abstract view
.subckt sky130_fd_sc_hd__or2_2 A B VGND VNB VPB VPWR X
.ends

* Black-box entry subcircuit for sky130_fd_sc_hd__nand3_1 abstract view
.subckt sky130_fd_sc_hd__nand3_1 A B C VGND VNB VPB VPWR Y
.ends

* Black-box entry subcircuit for sky130_fd_sc_hd__dfrtp_4 abstract view
.subckt sky130_fd_sc_hd__dfrtp_4 CLK D RESET_B VGND VNB VPB VPWR Q
.ends

* Black-box entry subcircuit for sky130_fd_sc_hd__o31ai_2 abstract view
.subckt sky130_fd_sc_hd__o31ai_2 A1 A2 A3 B1 VGND VNB VPB VPWR Y
.ends

* Black-box entry subcircuit for sky130_fd_sc_hd__nor2_2 abstract view
.subckt sky130_fd_sc_hd__nor2_2 A B VGND VNB VPB VPWR Y
.ends

* Black-box entry subcircuit for sky130_fd_sc_hd__clkbuf_16 abstract view
.subckt sky130_fd_sc_hd__clkbuf_16 A VGND VNB VPB VPWR X
.ends

* Black-box entry subcircuit for sky130_fd_sc_hd__dfrtp_2 abstract view
.subckt sky130_fd_sc_hd__dfrtp_2 CLK D RESET_B VGND VNB VPB VPWR Q
.ends

* Black-box entry subcircuit for sky130_fd_sc_hd__o31a_2 abstract view
.subckt sky130_fd_sc_hd__o31a_2 A1 A2 A3 B1 VGND VNB VPB VPWR X
.ends

* Black-box entry subcircuit for sky130_fd_sc_hd__dlymetal6s2s_1 abstract view
.subckt sky130_fd_sc_hd__dlymetal6s2s_1 A VGND VNB VPB VPWR X
.ends

* Black-box entry subcircuit for sky130_fd_sc_hd__o21bai_1 abstract view
.subckt sky130_fd_sc_hd__o21bai_1 A1 A2 B1_N VGND VNB VPB VPWR Y
.ends

* Black-box entry subcircuit for sky130_fd_sc_hd__mux2_1 abstract view
.subckt sky130_fd_sc_hd__mux2_1 A0 A1 S VGND VNB VPB VPWR X
.ends

* Black-box entry subcircuit for sky130_fd_sc_hd__xor2_2 abstract view
.subckt sky130_fd_sc_hd__xor2_2 A B VGND VNB VPB VPWR X
.ends

* Black-box entry subcircuit for sky130_fd_sc_hd__clkbuf_2 abstract view
.subckt sky130_fd_sc_hd__clkbuf_2 A VGND VNB VPB VPWR X
.ends

* Black-box entry subcircuit for sky130_fd_sc_hd__buf_4 abstract view
.subckt sky130_fd_sc_hd__buf_4 A VGND VNB VPB VPWR X
.ends

* Black-box entry subcircuit for sky130_fd_sc_hd__and3_4 abstract view
.subckt sky130_fd_sc_hd__and3_4 A B C VGND VNB VPB VPWR X
.ends

* Black-box entry subcircuit for sky130_fd_sc_hd__nand2_2 abstract view
.subckt sky130_fd_sc_hd__nand2_2 A B VGND VNB VPB VPWR Y
.ends

* Black-box entry subcircuit for sky130_fd_sc_hd__buf_2 abstract view
.subckt sky130_fd_sc_hd__buf_2 A VGND VNB VPB VPWR X
.ends

* Black-box entry subcircuit for sky130_fd_sc_hd__a31oi_2 abstract view
.subckt sky130_fd_sc_hd__a31oi_2 A1 A2 A3 B1 VGND VNB VPB VPWR Y
.ends

* Black-box entry subcircuit for sky130_fd_sc_hd__dfrtp_1 abstract view
.subckt sky130_fd_sc_hd__dfrtp_1 CLK D RESET_B VGND VNB VPB VPWR Q
.ends

* Black-box entry subcircuit for sky130_fd_sc_hd__clkbuf_1 abstract view
.subckt sky130_fd_sc_hd__clkbuf_1 A VGND VNB VPB VPWR X
.ends

* Black-box entry subcircuit for sky130_fd_sc_hd__nand3_2 abstract view
.subckt sky130_fd_sc_hd__nand3_2 A B C VGND VNB VPB VPWR Y
.ends

* Black-box entry subcircuit for sky130_fd_sc_hd__a21boi_1 abstract view
.subckt sky130_fd_sc_hd__a21boi_1 A1 A2 B1_N VGND VNB VPB VPWR Y
.ends

* Black-box entry subcircuit for sky130_fd_sc_hd__o2bb2ai_1 abstract view
.subckt sky130_fd_sc_hd__o2bb2ai_1 A1_N A2_N B1 B2 VGND VNB VPB VPWR Y
.ends

* Black-box entry subcircuit for sky130_fd_sc_hd__o311a_2 abstract view
.subckt sky130_fd_sc_hd__o311a_2 A1 A2 A3 B1 C1 VGND VNB VPB VPWR X
.ends

* Black-box entry subcircuit for sky130_fd_sc_hd__clkbuf_4 abstract view
.subckt sky130_fd_sc_hd__clkbuf_4 A VGND VNB VPB VPWR X
.ends

* Black-box entry subcircuit for sky130_fd_sc_hd__nand3b_1 abstract view
.subckt sky130_fd_sc_hd__nand3b_1 A_N B C VGND VNB VPB VPWR Y
.ends

* Black-box entry subcircuit for sky130_fd_sc_hd__o32ai_2 abstract view
.subckt sky130_fd_sc_hd__o32ai_2 A1 A2 A3 B1 B2 VGND VNB VPB VPWR Y
.ends

* Black-box entry subcircuit for sky130_fd_sc_hd__a21boi_2 abstract view
.subckt sky130_fd_sc_hd__a21boi_2 A1 A2 B1_N VGND VNB VPB VPWR Y
.ends

* Black-box entry subcircuit for sky130_fd_sc_hd__buf_12 abstract view
.subckt sky130_fd_sc_hd__buf_12 A VGND VNB VPB VPWR X
.ends

* Black-box entry subcircuit for sky130_fd_sc_hd__and3b_2 abstract view
.subckt sky130_fd_sc_hd__and3b_2 A_N B C VGND VNB VPB VPWR X
.ends

* Black-box entry subcircuit for sky130_fd_sc_hd__a21bo_2 abstract view
.subckt sky130_fd_sc_hd__a21bo_2 A1 A2 B1_N VGND VNB VPB VPWR X
.ends

* Black-box entry subcircuit for sky130_fd_sc_hd__o311ai_4 abstract view
.subckt sky130_fd_sc_hd__o311ai_4 A1 A2 A3 B1 C1 VGND VNB VPB VPWR Y
.ends

* Black-box entry subcircuit for sky130_fd_sc_hd__and3b_1 abstract view
.subckt sky130_fd_sc_hd__and3b_1 A_N B C VGND VNB VPB VPWR X
.ends

* Black-box entry subcircuit for sky130_fd_sc_hd__a21o_2 abstract view
.subckt sky130_fd_sc_hd__a21o_2 A1 A2 B1 VGND VNB VPB VPWR X
.ends

* Black-box entry subcircuit for sky130_fd_sc_hd__a221o_1 abstract view
.subckt sky130_fd_sc_hd__a221o_1 A1 A2 B1 B2 C1 VGND VNB VPB VPWR X
.ends

* Black-box entry subcircuit for sky130_fd_sc_hd__and4b_4 abstract view
.subckt sky130_fd_sc_hd__and4b_4 A_N B C D VGND VNB VPB VPWR X
.ends

* Black-box entry subcircuit for sky130_fd_sc_hd__nand2b_2 abstract view
.subckt sky130_fd_sc_hd__nand2b_2 A_N B VGND VNB VPB VPWR Y
.ends

* Black-box entry subcircuit for sky130_fd_sc_hd__dlygate4sd3_1 abstract view
.subckt sky130_fd_sc_hd__dlygate4sd3_1 A VGND VNB VPB VPWR X
.ends

* Black-box entry subcircuit for sky130_fd_sc_hd__and4b_2 abstract view
.subckt sky130_fd_sc_hd__and4b_2 A_N B C D VGND VNB VPB VPWR X
.ends

* Black-box entry subcircuit for sky130_fd_sc_hd__nand4_1 abstract view
.subckt sky130_fd_sc_hd__nand4_1 A B C D VGND VNB VPB VPWR Y
.ends

* Black-box entry subcircuit for sky130_fd_sc_hd__o21ai_4 abstract view
.subckt sky130_fd_sc_hd__o21ai_4 A1 A2 B1 VGND VNB VPB VPWR Y
.ends

* Black-box entry subcircuit for sky130_fd_sc_hd__and2b_4 abstract view
.subckt sky130_fd_sc_hd__and2b_4 A_N B VGND VNB VPB VPWR X
.ends

* Black-box entry subcircuit for sky130_fd_sc_hd__a31o_2 abstract view
.subckt sky130_fd_sc_hd__a31o_2 A1 A2 A3 B1 VGND VNB VPB VPWR X
.ends

* Black-box entry subcircuit for sky130_fd_sc_hd__or3_4 abstract view
.subckt sky130_fd_sc_hd__or3_4 A B C VGND VNB VPB VPWR X
.ends

* Black-box entry subcircuit for sky130_fd_sc_hd__and4_1 abstract view
.subckt sky130_fd_sc_hd__and4_1 A B C D VGND VNB VPB VPWR X
.ends

* Black-box entry subcircuit for sky130_fd_sc_hd__o21a_2 abstract view
.subckt sky130_fd_sc_hd__o21a_2 A1 A2 B1 VGND VNB VPB VPWR X
.ends

* Black-box entry subcircuit for sky130_fd_sc_hd__a21oi_4 abstract view
.subckt sky130_fd_sc_hd__a21oi_4 A1 A2 B1 VGND VNB VPB VPWR Y
.ends

* Black-box entry subcircuit for sky130_fd_sc_hd__or4bb_1 abstract view
.subckt sky130_fd_sc_hd__or4bb_1 A B C_N D_N VGND VNB VPB VPWR X
.ends

* Black-box entry subcircuit for sky130_fd_sc_hd__a32o_1 abstract view
.subckt sky130_fd_sc_hd__a32o_1 A1 A2 A3 B1 B2 VGND VNB VPB VPWR X
.ends

* Black-box entry subcircuit for sky130_fd_sc_hd__or4_2 abstract view
.subckt sky130_fd_sc_hd__or4_2 A B C D VGND VNB VPB VPWR X
.ends

* Black-box entry subcircuit for sky130_fd_sc_hd__a22oi_4 abstract view
.subckt sky130_fd_sc_hd__a22oi_4 A1 A2 B1 B2 VGND VNB VPB VPWR Y
.ends

* Black-box entry subcircuit for sky130_fd_sc_hd__or4_1 abstract view
.subckt sky130_fd_sc_hd__or4_1 A B C D VGND VNB VPB VPWR X
.ends

* Black-box entry subcircuit for sky130_fd_sc_hd__a2111o_1 abstract view
.subckt sky130_fd_sc_hd__a2111o_1 A1 A2 B1 C1 D1 VGND VNB VPB VPWR X
.ends

* Black-box entry subcircuit for sky130_fd_sc_hd__or4b_4 abstract view
.subckt sky130_fd_sc_hd__or4b_4 A B C D_N VGND VNB VPB VPWR X
.ends

.subckt tt_um_connerdaehler_boop VGND VPWR clk ena rst_n ui_in[0] ui_in[1] ui_in[2]
+ ui_in[3] ui_in[4] ui_in[5] ui_in[6] ui_in[7] uio_in[0] uio_in[1] uio_in[2] uio_in[3]
+ uio_in[4] uio_in[5] uio_in[6] uio_in[7] uio_oe[0] uio_oe[1] uio_oe[2] uio_oe[3]
+ uio_oe[4] uio_oe[5] uio_oe[6] uio_oe[7] uio_out[0] uio_out[1] uio_out[2] uio_out[3]
+ uio_out[4] uio_out[5] uio_out[6] uio_out[7] uo_out[0] uo_out[1] uo_out[2] uo_out[3]
+ uo_out[4] uo_out[5] uo_out[6] uo_out[7]
X_2106_ _2105_/B _2105_/C _2105_/A VGND VGND VPWR VPWR _2107_/B sky130_fd_sc_hd__o21ai_1
XFILLER_54_225 VGND VGND VPWR VPWR sky130_fd_sc_hd__fill_2
X_2037_ _2037_/A _2037_/B VGND VGND VPWR VPWR _2039_/B sky130_fd_sc_hd__xnor2_1
XFILLER_52_29 VGND VGND VPWR VPWR sky130_fd_sc_hd__fill_2
XFILLER_52_18 VGND VGND VPWR VPWR sky130_fd_sc_hd__decap_3
XFILLER_22_122 VGND VGND VPWR VPWR sky130_fd_sc_hd__decap_3
XFILLER_10_339 VGND VGND VPWR VPWR sky130_fd_sc_hd__fill_2
XTAP_TAPCELL_ROW_60_492 VGND VPWR sky130_fd_sc_hd__tapvpwrvgnd_1
XFILLER_45_225 VGND VGND VPWR VPWR sky130_fd_sc_hd__decap_3
XFILLER_45_203 VGND VGND VPWR VPWR sky130_fd_sc_hd__decap_3
XFILLER_45_247 VGND VGND VPWR VPWR sky130_fd_sc_hd__decap_3
XFILLER_60_228 VGND VGND VPWR VPWR sky130_fd_sc_hd__decap_3
XFILLER_60_206 VGND VGND VPWR VPWR sky130_fd_sc_hd__decap_3
XFILLER_13_111 VGND VGND VPWR VPWR sky130_fd_sc_hd__fill_1
XFILLER_42_62 VGND VGND VPWR VPWR sky130_fd_sc_hd__decap_3
XFILLER_5_354 VGND VGND VPWR VPWR sky130_fd_sc_hd__decap_3
XFILLER_54_9 VGND VGND VPWR VPWR sky130_fd_sc_hd__decap_3
XFILLER_3_12 VGND VGND VPWR VPWR sky130_fd_sc_hd__decap_3
XTAP_TAPCELL_ROW_8_181 VGND VPWR sky130_fd_sc_hd__tapvpwrvgnd_1
XFILLER_3_45 VGND VGND VPWR VPWR sky130_fd_sc_hd__decap_3
XFILLER_3_89 VGND VGND VPWR VPWR sky130_fd_sc_hd__decap_3
XFILLER_51_239 VGND VGND VPWR VPWR sky130_fd_sc_hd__decap_3
X_2724_ input6/X _2724_/B VGND VGND VPWR VPWR uo_out[7] sky130_fd_sc_hd__xnor2_4
X_2655_ _2657_/B _2649_/X _2653_/Y _2654_/X VGND VGND VPWR VPWR _2655_/X sky130_fd_sc_hd__o22a_1
XFILLER_8_192 VGND VGND VPWR VPWR sky130_fd_sc_hd__decap_3
X_1606_ _1606_/A _1606_/B VGND VGND VPWR VPWR _1607_/B sky130_fd_sc_hd__xnor2_1
X_2586_ _2541_/A _2552_/A _2538_/C VGND VGND VPWR VPWR _2587_/B sky130_fd_sc_hd__a21o_1
X_1537_ _1537_/A _1537_/B _1537_/C VGND VGND VPWR VPWR _1538_/B sky130_fd_sc_hd__and3_1
XFILLER_59_317 VGND VGND VPWR VPWR sky130_fd_sc_hd__decap_3
X_1468_ _1535_/A _1469_/B VGND VGND VPWR VPWR _1537_/B sky130_fd_sc_hd__nand2_1
XFILLER_47_18 VGND VGND VPWR VPWR sky130_fd_sc_hd__decap_3
X_1399_ _2767_/Q _1438_/B _1416_/D VGND VGND VPWR VPWR _1421_/A sky130_fd_sc_hd__or3_2
XFILLER_27_214 VGND VGND VPWR VPWR sky130_fd_sc_hd__decap_3
XFILLER_35_291 VGND VGND VPWR VPWR sky130_fd_sc_hd__fill_2
XFILLER_50_250 VGND VGND VPWR VPWR sky130_fd_sc_hd__fill_2
XFILLER_50_283 VGND VGND VPWR VPWR sky130_fd_sc_hd__decap_3
XFILLER_12_21 VGND VGND VPWR VPWR sky130_fd_sc_hd__decap_3
XFILLER_12_54 VGND VGND VPWR VPWR sky130_fd_sc_hd__fill_2
XFILLER_6_129 VGND VGND VPWR VPWR sky130_fd_sc_hd__decap_3
XFILLER_2_357 VGND VGND VPWR VPWR sky130_fd_sc_hd__fill_1
XTAP_TAPCELL_ROW_5_162 VGND VPWR sky130_fd_sc_hd__tapvpwrvgnd_1
XFILLER_18_203 VGND VGND VPWR VPWR sky130_fd_sc_hd__decap_3
XFILLER_37_73 VGND VGND VPWR VPWR sky130_fd_sc_hd__fill_1
XFILLER_18_247 VGND VGND VPWR VPWR sky130_fd_sc_hd__fill_1
XFILLER_37_95 VGND VGND VPWR VPWR sky130_fd_sc_hd__fill_2
XFILLER_18_269 VGND VGND VPWR VPWR sky130_fd_sc_hd__decap_3
XTAP_TAPCELL_ROW_28_297 VGND VPWR sky130_fd_sc_hd__tapvpwrvgnd_1
XFILLER_33_228 VGND VGND VPWR VPWR sky130_fd_sc_hd__decap_3
XFILLER_53_83 VGND VGND VPWR VPWR sky130_fd_sc_hd__decap_3
XFILLER_41_261 VGND VGND VPWR VPWR sky130_fd_sc_hd__decap_3
XTAP_TAPCELL_ROW_11_197 VGND VPWR sky130_fd_sc_hd__tapvpwrvgnd_1
X_2440_ _2440_/A _2440_/B VGND VGND VPWR VPWR _2441_/B sky130_fd_sc_hd__nand2_1
XFILLER_5_162 VGND VGND VPWR VPWR sky130_fd_sc_hd__decap_3
XFILLER_5_151 VGND VGND VPWR VPWR sky130_fd_sc_hd__decap_3
XFILLER_52_6 VGND VGND VPWR VPWR sky130_fd_sc_hd__decap_3
XFILLER_5_195 VGND VGND VPWR VPWR sky130_fd_sc_hd__decap_3
XFILLER_5_184 VGND VGND VPWR VPWR sky130_fd_sc_hd__fill_1
X_2371_ _2380_/A _2383_/A _2370_/X VGND VGND VPWR VPWR _2371_/X sky130_fd_sc_hd__a21o_1
XFILLER_56_309 VGND VGND VPWR VPWR sky130_fd_sc_hd__decap_3
XTAP_TAPCELL_ROW_19_242 VGND VPWR sky130_fd_sc_hd__tapvpwrvgnd_1
XFILLER_24_217 VGND VGND VPWR VPWR sky130_fd_sc_hd__decap_3
XFILLER_24_206 VGND VGND VPWR VPWR sky130_fd_sc_hd__decap_3
XFILLER_24_239 VGND VGND VPWR VPWR sky130_fd_sc_hd__decap_3
XFILLER_32_283 VGND VGND VPWR VPWR sky130_fd_sc_hd__decap_3
X_2707_ _2707_/A _2707_/B VGND VGND VPWR VPWR _2707_/Y sky130_fd_sc_hd__xnor2_1
X_2638_ _2660_/A _2638_/B _2638_/C VGND VGND VPWR VPWR _2640_/D sky130_fd_sc_hd__nor3_1
X_2569_ _2569_/A _2571_/A VGND VGND VPWR VPWR _2607_/A sky130_fd_sc_hd__xor2_1
XTAP_TAPCELL_ROW_2_143 VGND VPWR sky130_fd_sc_hd__tapvpwrvgnd_1
XFILLER_55_320 VGND VGND VPWR VPWR sky130_fd_sc_hd__decap_3
XFILLER_15_228 VGND VGND VPWR VPWR sky130_fd_sc_hd__decap_3
XTAP_TAPCELL_ROW_25_278 VGND VPWR sky130_fd_sc_hd__tapvpwrvgnd_1
XFILLER_23_20 VGND VGND VPWR VPWR sky130_fd_sc_hd__decap_3
XFILLER_23_75 VGND VGND VPWR VPWR sky130_fd_sc_hd__decap_3
XFILLER_2_165 VGND VGND VPWR VPWR sky130_fd_sc_hd__decap_3
XFILLER_48_61 VGND VGND VPWR VPWR sky130_fd_sc_hd__decap_3
XFILLER_0_24 VGND VGND VPWR VPWR sky130_fd_sc_hd__decap_3
XFILLER_0_35 VGND VGND VPWR VPWR sky130_fd_sc_hd__decap_3
XFILLER_58_180 VGND VGND VPWR VPWR sky130_fd_sc_hd__decap_3
XFILLER_46_331 VGND VGND VPWR VPWR sky130_fd_sc_hd__decap_3
XFILLER_0_57 VGND VGND VPWR VPWR sky130_fd_sc_hd__fill_1
XFILLER_0_79 VGND VGND VPWR VPWR sky130_fd_sc_hd__decap_3
X_1940_ _1940_/A _1940_/B VGND VGND VPWR VPWR _2016_/A sky130_fd_sc_hd__nor2_1
XFILLER_9_44 VGND VGND VPWR VPWR sky130_fd_sc_hd__decap_3
XFILLER_14_250 VGND VGND VPWR VPWR sky130_fd_sc_hd__fill_2
X_1871_ _1871_/A _1871_/B VGND VGND VPWR VPWR _1873_/B sky130_fd_sc_hd__and2_1
XFILLER_9_66 VGND VGND VPWR VPWR sky130_fd_sc_hd__fill_2
XFILLER_50_3 VGND VGND VPWR VPWR sky130_fd_sc_hd__decap_3
X_2423_ _2663_/A VGND VGND VPWR VPWR _2463_/A sky130_fd_sc_hd__inv_2
X_2354_ _2354_/A _2354_/B _2355_/B VGND VGND VPWR VPWR _2354_/X sky130_fd_sc_hd__or3b_1
X_2285_ _2286_/B _2310_/C _2293_/B VGND VGND VPWR VPWR _2309_/A sky130_fd_sc_hd__a21o_1
XFILLER_56_128 VGND VGND VPWR VPWR sky130_fd_sc_hd__decap_3
XFILLER_52_301 VGND VGND VPWR VPWR sky130_fd_sc_hd__decap_3
XFILLER_52_312 VGND VGND VPWR VPWR sky130_fd_sc_hd__decap_3
XFILLER_12_209 VGND VGND VPWR VPWR sky130_fd_sc_hd__decap_3
XFILLER_52_345 VGND VGND VPWR VPWR sky130_fd_sc_hd__decap_3
XFILLER_60_18 VGND VGND VPWR VPWR sky130_fd_sc_hd__decap_3
XFILLER_20_220 VGND VGND VPWR VPWR sky130_fd_sc_hd__decap_3
XFILLER_60_29 VGND VGND VPWR VPWR sky130_fd_sc_hd__decap_3
XFILLER_20_264 VGND VGND VPWR VPWR sky130_fd_sc_hd__decap_3
XFILLER_20_253 VGND VGND VPWR VPWR sky130_fd_sc_hd__fill_2
XPHY_EDGE_ROW_8_Left_69 VGND VGND VPWR VPWR sky130_fd_sc_hd__decap_3
XFILLER_28_342 VGND VGND VPWR VPWR sky130_fd_sc_hd__fill_2
XFILLER_18_64 VGND VGND VPWR VPWR sky130_fd_sc_hd__decap_3
XFILLER_43_334 VGND VGND VPWR VPWR sky130_fd_sc_hd__fill_2
XFILLER_43_312 VGND VGND VPWR VPWR sky130_fd_sc_hd__decap_3
XFILLER_34_52 VGND VGND VPWR VPWR sky130_fd_sc_hd__decap_3
XFILLER_11_220 VGND VGND VPWR VPWR sky130_fd_sc_hd__decap_3
XFILLER_11_231 VGND VGND VPWR VPWR sky130_fd_sc_hd__decap_3
XFILLER_34_85 VGND VGND VPWR VPWR sky130_fd_sc_hd__decap_3
XFILLER_11_264 VGND VGND VPWR VPWR sky130_fd_sc_hd__decap_3
XFILLER_11_275 VGND VGND VPWR VPWR sky130_fd_sc_hd__decap_3
XFILLER_11_286 VGND VGND VPWR VPWR sky130_fd_sc_hd__fill_2
XFILLER_7_257 VGND VGND VPWR VPWR sky130_fd_sc_hd__decap_3
XFILLER_50_40 VGND VGND VPWR VPWR sky130_fd_sc_hd__decap_3
XFILLER_59_60 VGND VGND VPWR VPWR sky130_fd_sc_hd__decap_3
XFILLER_59_93 VGND VGND VPWR VPWR sky130_fd_sc_hd__decap_3
XFILLER_38_106 VGND VGND VPWR VPWR sky130_fd_sc_hd__decap_3
X_2070_ _2065_/A _2065_/B _2063_/X VGND VGND VPWR VPWR _2138_/A sky130_fd_sc_hd__a21oi_1
XFILLER_19_320 VGND VGND VPWR VPWR sky130_fd_sc_hd__decap_3
XFILLER_15_6 VGND VGND VPWR VPWR sky130_fd_sc_hd__fill_2
XFILLER_46_150 VGND VGND VPWR VPWR sky130_fd_sc_hd__decap_3
XFILLER_34_312 VGND VGND VPWR VPWR sky130_fd_sc_hd__fill_1
XFILLER_34_356 VGND VGND VPWR VPWR sky130_fd_sc_hd__decap_3
X_1923_ _1557_/B _2054_/A _1922_/X VGND VGND VPWR VPWR _1926_/A sky130_fd_sc_hd__a21o_1
XTAP_TAPCELL_ROW_44_395 VGND VPWR sky130_fd_sc_hd__tapvpwrvgnd_1
X_1854_ _2000_/A _1854_/B VGND VGND VPWR VPWR _1856_/C sky130_fd_sc_hd__xnor2_1
X_1785_ _1787_/A _1787_/B _1784_/Y VGND VGND VPWR VPWR _1785_/X sky130_fd_sc_hd__o21ba_1
X_2406_ _2434_/B _2440_/A _2434_/A VGND VGND VPWR VPWR _2435_/A sky130_fd_sc_hd__a21oi_1
Xtt_um_connerdaehler_boop_54 VGND VGND VPWR VPWR tt_um_connerdaehler_boop_54/HI uio_oe[5]
+ sky130_fd_sc_hd__conb_1
X_2337_ _2217_/A _2347_/B _2346_/A _2336_/A _2770_/Q VGND VGND VPWR VPWR _2338_/C
+ sky130_fd_sc_hd__o2111a_1
XFILLER_29_106 VGND VGND VPWR VPWR sky130_fd_sc_hd__decap_3
X_2268_ _2269_/A _2269_/B VGND VGND VPWR VPWR _2268_/Y sky130_fd_sc_hd__nand2_1
XFILLER_29_128 VGND VGND VPWR VPWR sky130_fd_sc_hd__decap_3
XFILLER_55_18 VGND VGND VPWR VPWR sky130_fd_sc_hd__decap_3
X_2199_ _2735_/A _2199_/B VGND VGND VPWR VPWR _2199_/Y sky130_fd_sc_hd__nand2_1
XTAP_TAPCELL_ROW_35_340 VGND VPWR sky130_fd_sc_hd__tapvpwrvgnd_1
XFILLER_37_194 VGND VGND VPWR VPWR sky130_fd_sc_hd__decap_3
XFILLER_52_186 VGND VGND VPWR VPWR sky130_fd_sc_hd__decap_3
XFILLER_40_304 VGND VGND VPWR VPWR sky130_fd_sc_hd__decap_3
XFILLER_52_197 VGND VGND VPWR VPWR sky130_fd_sc_hd__decap_3
XFILLER_20_98 VGND VGND VPWR VPWR sky130_fd_sc_hd__decap_3
XFILLER_29_85 VGND VGND VPWR VPWR sky130_fd_sc_hd__decap_3
XFILLER_29_74 VGND VGND VPWR VPWR sky130_fd_sc_hd__fill_1
XFILLER_28_150 VGND VGND VPWR VPWR sky130_fd_sc_hd__decap_3
XTAP_TAPCELL_ROW_58_476 VGND VPWR sky130_fd_sc_hd__tapvpwrvgnd_1
XFILLER_28_183 VGND VGND VPWR VPWR sky130_fd_sc_hd__decap_3
XFILLER_16_301 VGND VGND VPWR VPWR sky130_fd_sc_hd__decap_3
XTAP_TAPCELL_ROW_41_376 VGND VPWR sky130_fd_sc_hd__tapvpwrvgnd_1
XFILLER_6_12 VGND VGND VPWR VPWR sky130_fd_sc_hd__decap_3
X_1570_ _1579_/A VGND VGND VPWR VPWR _1611_/A sky130_fd_sc_hd__inv_2
XFILLER_6_67 VGND VGND VPWR VPWR sky130_fd_sc_hd__decap_3
XFILLER_3_293 VGND VGND VPWR VPWR sky130_fd_sc_hd__decap_3
XFILLER_13_3 VGND VGND VPWR VPWR sky130_fd_sc_hd__decap_3
X_2122_ _1898_/A _2045_/B _1972_/B VGND VGND VPWR VPWR _2122_/Y sky130_fd_sc_hd__o21ai_1
XFILLER_26_109 VGND VGND VPWR VPWR sky130_fd_sc_hd__decap_3
X_2053_ _2051_/A _2051_/B _2114_/A VGND VGND VPWR VPWR _2056_/A sky130_fd_sc_hd__o21ba_1
XFILLER_34_164 VGND VGND VPWR VPWR sky130_fd_sc_hd__fill_1
XTAP_TAPCELL_ROW_32_321 VGND VPWR sky130_fd_sc_hd__tapvpwrvgnd_1
XFILLER_22_326 VGND VGND VPWR VPWR sky130_fd_sc_hd__fill_2
X_1906_ _1890_/A _1890_/B _1891_/Y VGND VGND VPWR VPWR _1909_/A sky130_fd_sc_hd__a21bo_1
X_1837_ _1837_/A _1837_/B VGND VGND VPWR VPWR _1935_/A sky130_fd_sc_hd__xnor2_1
X_1768_ _1751_/Y _1760_/Y _1782_/A _1767_/X VGND VGND VPWR VPWR _1780_/A sky130_fd_sc_hd__a31oi_1
X_1699_ _1836_/A _1836_/B VGND VGND VPWR VPWR _1699_/Y sky130_fd_sc_hd__nand2b_1
XFILLER_1_219 VGND VGND VPWR VPWR sky130_fd_sc_hd__decap_3
XFILLER_57_267 VGND VGND VPWR VPWR sky130_fd_sc_hd__decap_3
XFILLER_25_131 VGND VGND VPWR VPWR sky130_fd_sc_hd__decap_3
XFILLER_15_21 VGND VGND VPWR VPWR sky130_fd_sc_hd__decap_3
XFILLER_13_337 VGND VGND VPWR VPWR sky130_fd_sc_hd__decap_3
XFILLER_40_134 VGND VGND VPWR VPWR sky130_fd_sc_hd__fill_1
XFILLER_40_178 VGND VGND VPWR VPWR sky130_fd_sc_hd__decap_3
XFILLER_31_53 VGND VGND VPWR VPWR sky130_fd_sc_hd__decap_3
XFILLER_31_75 VGND VGND VPWR VPWR sky130_fd_sc_hd__decap_3
XFILLER_48_278 VGND VGND VPWR VPWR sky130_fd_sc_hd__decap_3
XFILLER_48_256 VGND VGND VPWR VPWR sky130_fd_sc_hd__decap_3
XFILLER_16_164 VGND VGND VPWR VPWR sky130_fd_sc_hd__fill_1
XFILLER_31_156 VGND VGND VPWR VPWR sky130_fd_sc_hd__decap_3
X_2740_ _2740_/A _2742_/B VGND VGND VPWR VPWR _2765_/D sky130_fd_sc_hd__nor2_1
XFILLER_31_189 VGND VGND VPWR VPWR sky130_fd_sc_hd__decap_3
X_2671_ _1489_/B _2662_/B _2662_/C _2668_/Y _2670_/X VGND VGND VPWR VPWR _2672_/C
+ sky130_fd_sc_hd__a311oi_1
XFILLER_8_352 VGND VGND VPWR VPWR sky130_fd_sc_hd__decap_3
X_1622_ _1622_/A _1622_/B VGND VGND VPWR VPWR _1627_/A sky130_fd_sc_hd__xnor2_1
X_1553_ _1813_/A _1553_/B VGND VGND VPWR VPWR _1568_/B sky130_fd_sc_hd__xor2_1
X_1484_ _1484_/A _1484_/B VGND VGND VPWR VPWR _1488_/B sky130_fd_sc_hd__xor2_1
XFILLER_39_234 VGND VGND VPWR VPWR sky130_fd_sc_hd__decap_3
XFILLER_39_212 VGND VGND VPWR VPWR sky130_fd_sc_hd__fill_2
X_2105_ _2105_/A _2105_/B _2105_/C VGND VGND VPWR VPWR _2126_/B sky130_fd_sc_hd__or3_1
XFILLER_54_204 VGND VGND VPWR VPWR sky130_fd_sc_hd__decap_3
XFILLER_39_278 VGND VGND VPWR VPWR sky130_fd_sc_hd__fill_2
X_2036_ _1656_/A _1582_/A _2146_/A _2021_/Y VGND VGND VPWR VPWR _2039_/A sky130_fd_sc_hd__o31a_1
XFILLER_54_237 VGND VGND VPWR VPWR sky130_fd_sc_hd__decap_3
XFILLER_22_134 VGND VGND VPWR VPWR sky130_fd_sc_hd__decap_3
XFILLER_22_112 VGND VGND VPWR VPWR sky130_fd_sc_hd__fill_2
XFILLER_22_101 VGND VGND VPWR VPWR sky130_fd_sc_hd__decap_3
XFILLER_10_329 VGND VGND VPWR VPWR sky130_fd_sc_hd__fill_2
XTAP_TAPCELL_ROW_60_493 VGND VPWR sky130_fd_sc_hd__tapvpwrvgnd_1
XFILLER_45_215 VGND VGND VPWR VPWR sky130_fd_sc_hd__decap_3
XPHY_EDGE_ROW_37_Left_98 VGND VGND VPWR VPWR sky130_fd_sc_hd__decap_3
XFILLER_60_218 VGND VGND VPWR VPWR sky130_fd_sc_hd__decap_3
XFILLER_53_281 VGND VGND VPWR VPWR sky130_fd_sc_hd__decap_3
XFILLER_53_270 VGND VGND VPWR VPWR sky130_fd_sc_hd__decap_3
XFILLER_26_97 VGND VGND VPWR VPWR sky130_fd_sc_hd__decap_3
XFILLER_13_189 VGND VGND VPWR VPWR sky130_fd_sc_hd__decap_3
XFILLER_42_52 VGND VGND VPWR VPWR sky130_fd_sc_hd__decap_3
XFILLER_42_85 VGND VGND VPWR VPWR sky130_fd_sc_hd__decap_3
XPHY_EDGE_ROW_39_Left_100 VGND VGND VPWR VPWR sky130_fd_sc_hd__decap_3
XFILLER_5_322 VGND VGND VPWR VPWR sky130_fd_sc_hd__decap_3
XFILLER_47_9 VGND VGND VPWR VPWR sky130_fd_sc_hd__decap_3
XFILLER_3_24 VGND VGND VPWR VPWR sky130_fd_sc_hd__decap_3
XFILLER_3_68 VGND VGND VPWR VPWR sky130_fd_sc_hd__decap_3
XFILLER_3_57 VGND VGND VPWR VPWR sky130_fd_sc_hd__decap_3
Xwire19 wire19/A VGND VGND VPWR VPWR wire19/X sky130_fd_sc_hd__buf_1
XFILLER_36_259 VGND VGND VPWR VPWR sky130_fd_sc_hd__decap_3
XFILLER_36_237 VGND VGND VPWR VPWR sky130_fd_sc_hd__decap_3